Version 4
SHEET 1 3692 2544
WIRE 752 128 624 128
WIRE 848 128 752 128
WIRE 864 128 848 128
WIRE 1136 128 864 128
WIRE 1280 128 1200 128
WIRE 1568 128 1344 128
WIRE 1600 128 1568 128
WIRE 1680 128 1600 128
WIRE 400 160 112 160
WIRE 624 160 624 128
WIRE 752 160 752 128
WIRE 400 176 400 160
WIRE 400 192 400 176
WIRE 1136 192 1136 128
WIRE 1200 192 1200 128
WIRE 848 208 848 128
WIRE 848 224 848 208
WIRE 1600 224 1600 128
WIRE 1680 224 1680 128
WIRE 400 256 400 240
WIRE 496 256 400 256
WIRE 624 256 624 224
WIRE 624 256 496 256
WIRE 752 256 752 224
WIRE 752 256 688 256
WIRE 400 272 400 256
WIRE 752 272 752 256
WIRE 624 288 624 256
WIRE 752 288 752 272
WIRE 400 368 400 336
WIRE 688 368 688 256
WIRE 688 368 400 368
WIRE 624 384 624 352
WIRE 752 384 752 336
WIRE 752 384 624 384
WIRE 1136 384 1136 272
WIRE 400 400 400 368
WIRE 1088 400 1008 400
WIRE 1200 416 1200 272
WIRE 1600 416 1600 288
WIRE 1600 416 1200 416
WIRE 1680 416 1680 304
WIRE 1680 416 1600 416
WIRE 1600 464 1600 416
WIRE 752 608 752 384
WIRE 848 608 848 272
WIRE 848 608 752 608
WIRE 864 608 848 608
WIRE 1136 608 1136 464
WIRE 1136 608 864 608
WIRE 1008 624 1008 400
WIRE 1088 704 1088 448
WIRE 1088 704 1008 704
WIRE 1008 736 1008 704
FLAG 112 240 0
FLAG 400 400 0
FLAG 864 128 vdc
FLAG 864 608 vgnd
FLAG 496 256 vac
FLAG 1568 128 vout
FLAG 1008 736 0
FLAG 1600 464 0
SYMBOL voltage 112 144 R0
WINDOW 123 0 0 Left 0
WINDOW 39 24 124 Left 2
SYMATTR SpiceLine Rser=1
SYMATTR InstName V1
SYMATTR Value SINE(0 7200 60)
SYMBOL cap 384 176 R0
SYMATTR InstName C1
SYMATTR Value 50p
SYMBOL cap 384 272 R0
SYMATTR InstName C2
SYMATTR Value 0.15p
SYMBOL cap 832 208 R0
SYMATTR InstName C3
SYMATTR Value 5n
SYMBOL ind2 1152 288 R180
WINDOW 0 36 80 Left 2
WINDOW 3 36 40 Left 2
SYMATTR InstName Lp
SYMATTR Value 10m
SYMATTR Type ind
SYMATTR SpiceLine Rser=3
SYMBOL ind2 1184 288 M180
WINDOW 0 36 80 Left 2
WINDOW 3 38 55 Left 2
SYMATTR InstName Ls
SYMATTR Value .5m
SYMATTR Type ind
SYMATTR SpiceLine Rser=0.2
SYMBOL res 1664 208 R0
SYMATTR InstName R1
SYMATTR Value 100k
SYMBOL voltage 1008 608 R0
WINDOW 123 0 0 Left 0
WINDOW 39 0 0 Left 0
WINDOW 3 87 61 Left 2
WINDOW 0 38 59 Left 2
SYMATTR Value PULSE(0 1 0 200n 200n 0.5us 16u)
SYMATTR InstName V2
SYMBOL cap 1584 224 R0
SYMATTR InstName C4
SYMATTR Value 1µ
SYMBOL diode 640 224 R180
WINDOW 0 24 64 Left 2
WINDOW 3 -26 171 Left 2
SYMATTR InstName D1
SYMATTR Value BYG10Y
SYMBOL diode 768 224 R180
WINDOW 0 24 64 Left 2
WINDOW 3 103 147 Left 2
SYMATTR InstName D2
SYMATTR Value BYG10Y
SYMBOL diode 768 336 R180
WINDOW 0 24 64 Left 2
WINDOW 3 102 307 Left 2
SYMATTR InstName D3
SYMATTR Value BYG10Y
SYMBOL diode 640 352 R180
WINDOW 0 24 64 Left 2
WINDOW 3 -26 345 Left 2
SYMATTR InstName D4
SYMATTR Value BYG10Y
SYMBOL diode 1280 144 R270
WINDOW 0 32 32 VTop 2
WINDOW 3 0 32 VBottom 2
SYMATTR InstName D5
SYMATTR Value MMSD4148
SYMBOL sw 1136 480 M180
SYMATTR InstName S1
SYMATTR Value MYSW
TEXT 128 392 Left 2 !.tran 0 0.2 0 0.001
TEXT 1120 104 Left 2 !K Lp Ls 1
TEXT 96 -224 Left 2 !.model MYSW SW(Ron=100 Roff=100Meg Vt=.5 Vh=0.1)
TEXT 1008 -232 Left 2 ;.step param ton_sw1 list 0.5u 1us 2us 4us 8us
TEXT 96 -256 Left 2 !.inc C2M1000170D.lib
TEXT 96 -192 Left 2 !.model byg10y d is = 1.81766E-009 n = 1.87266 rs = 0.102527\n+ eg = 1.25284 xti = 0.357254 t_measured = 27\n+ cjo = 2.4451E-011 vj = 0.7 m = 0.41827 fc = 0.5\n+ tt = 9.66791E-006 bv = 1760 ibv = 10 af = 1 kf = 0
TEXT 96 -296 Left 3 ;MODELS / SUBCIRCUITS
TEXT 432 -408 Left 4 ;ECE495E - ELECTRIC FIELD ENERGY HARVESTER
TEXT 120 504 Left 2 ;What attenuates the voltage across C2?
LINE Normal 1168 272 1168 192 2
